-------------------------------------------------------
          Amber 14 SANDER                              2014
          -------------------------------------------------------

  [-O]verwriting output

File Assignments:

 Here is the input file:

Production
 &cntrl
  imin=0,
  ntx=5,
  irest=1,
  nstlim=30000,
  dt=0.002,
  ntf=2,
  ntc=2,
  temp0=300.0,
  ntpr=100,
  ntwx=100,
  cut=8.0,
  ntb=2,
  ntp=1,
  ntt=3,
  gamma_ln=2.0,
  ig=-1,
 /

--------------------------------------------------------------------------------
   1.  RESOURCE   USE:
--------------------------------------------------------------------------------

 getting new box info from bottom of inpcrd

 NATOM  =    1912 NTYPES =       9 NBONH =    1902 MBONA  =       9
 NTHETH =      25 MTHETA =      11 NPHIH =      43 MPHIA  =      24
 NHPARM =       0 NPARM  =       0 NNB   =    2619 NRES   =     633
 NBONA  =       9 NTHETA =      11 NPHIA =      24 NUMBND =      13
 NUMANG =      21 NPTRA  =      20 NATYP =      10 NPHB   =       1
 IFBOX  =       1 NMXRS  =      10 IFCAP =       0 NEXTRA =       0
 NCOPY  =       0

     BOX TYPE: RECTILINEAR
Note: ig = -1. Setting random seed to   580657 based on wallclock time in microseconds.

--------------------------------------------------------------------------------
   2.  CONTROL  DATA  FOR  THE  RUN
--------------------------------------------------------------------------------

ACE

General flags:
     imin    =       0, nmropt  =       0

Nature and format of input:
     ntx     =       5, irest   =       1, ntrx    =       1

Nature and format of output:
     ntxo    =       1, ntpr    =     100, ntrx    =       1, ntwr    =     500
     iwrap   =       0, ntwx    =     100, ntwv    =       0, ntwe    =       0
     ioutfm  =       0, ntwprt  =       0, idecomp =       0, rbornstat=      0

Potential function:
     ntf     =       2, ntb     =       2, igb     =       0, nsnb    =      25
     ipol    =       0, gbsa    =       0, iesp    =       0
     dielc   =   1.00000, cut     =   8.00000, intdiel =   1.00000

Frozen or restrained atoms:
     ibelly  =       0, ntr     =       0

Molecular dynamics:
     nstlim  =     30000, nscm    =      1000, nrespa  =         1
     t       =   0.00000, dt      =   0.00200, vlimit  =  20.00000

Langevin dynamics temperature regulation:
     ig      =  580657
     temp0   = 300.00000, tempi   =   0.00000, gamma_ln=   2.00000

Pressure regulation:
     ntp     =       1
     pres0   =   1.00000, comp    =  44.60000, taup    =   1.00000

SHAKE:
     ntc     =       2, jfastw  =       0
     tol     =   0.00001

Ewald parameters:
     verbose =       0, ew_type =       0, nbflag  =       1, use_pme =       1
     vdwmeth =       1, eedmeth =       1, netfrc  =       1
     Box X =   31.398   Box Y =   34.100   Box Z =   29.273
     Alpha =   90.000   Beta  =   90.000   Gamma =   90.000
     NFFT1 =   32       NFFT2 =   36       NFFT3 =   30
     Cutoff=    8.000   Tol   =0.100E-04
     Ewald Coefficient =  0.34864
     Interpolation order =    4

--------------------------------------------------------------------------------
   3.  ATOMIC COORDINATES AND VELOCITIES
--------------------------------------------------------------------------------

ACE
 begin time read from input coords =    20.000 ps

 Number of triangulated 3-point waters found:      630

     Sum of charges from parm topology file =  -0.00000000
     Forcing neutrality...

--------------------------------------------------------------------------------
   4.  RESULTS
 NSTEP =      100   TIME(PS) =      20.200  TEMP(K) =   296.43  PRESS =  -300.8
 Etot   =     -4585.1049  EKtot   =      1129.2368  EPtot      =     -5714.3417
 BOND   =         1.5160  ANGLE   =         6.9846  DIHED      =        11.7108
 1-4 NB =         4.3175  1-4 EEL =        49.9911  VDWAALS    =       882.6741
 EELEC  =     -6671.5358  EHBOND  =         0.0000  RESTRAINT  =         0.0000
 EKCMT  =       583.7810  VIRIAL  =       786.8823  VOLUME     =     31270.0410
                                                    Density    =         0.6104
 Ewald error estimate:   0.3214E-03
 ------------------------------------------------------------------------------

      A V E R A G E S   O V E R   30000 S T E P S

 NSTEP =    30000   TIME(PS) =      80.000  TEMP(K) =   300.15  PRESS =  -181.0
 Etot   =     -4829.8013  EKtot   =      1143.4036  EPtot      =     -5973.2049
 BOND   =         3.3064  ANGLE   =         9.2114  DIHED      =        11.7034
 1-4 NB =         3.2267  1-4 EEL =        46.8587  VDWAALS    =       881.6358
 EELEC  =     -6929.1472  EHBOND  =         0.0000  RESTRAINT  =         0.0000
 EKCMT  =       565.5639  VIRIAL  =       662.5977  VOLUME     =     21294.1310
                                                    Density    =         0.9143
 Ewald error estimate:   0.2084E-03
 ------------------------------------------------------------------------------

      R M S  F L U C T U A T I O N S

 NSTEP =    30000   TIME(PS) =      80.000  TEMP(K) =     6.93  PRESS =   433.7
 Etot   =       120.4662  EKtot   =        26.3938  EPtot      =       116.6099
 BOND   =         1.5276  ANGLE   =         2.4317  DIHED      =         1.3004
 1-4 NB =         0.7537  1-4 EEL =         2.1899  VDWAALS    =        35.3865
 EELEC  =       130.4192  EHBOND  =         0.0000  RESTRAINT  =         0.0000
 EKCMT  =        18.9219  VIRIAL  =       210.0413  VOLUME     =      3338.3220
                                                    Density    =         0.1153
 Ewald error estimate:   0.1568E-03
 ------------------------------------------------------------------------------
